Pcp_File_Version=4
*** BLOCK I: ATMOSPHERIC INFORMATION  **********************************
MaxAL (MaxAL = number of atmospheric data-records)
756
lDailyVar lSinusVar lLai lBCCycles lInterc 
f f f f f
hCritS (max. allowed pressure head at the soil surface)
1e+30
 tAtm   Prec   rSoil   rRoot    hCritA  rB  hB  ht  tTop  tBot  Ampl  cTop  cBot
    1 0.0000 0.00000 0.00000 1000000.0   0   0   0     0     0     0   0.0   0.0
    2 0.0000 0.03556 0.00000 1000000.0   0   0   0     0     0     0   0.0   0.0
    3 0.0000 0.10668 0.00000 1000000.0   0   0   0     0     0     0   0.0   0.0
    4 0.0000 0.07620 0.00000 1000000.0   0   0   0     0     0     0   0.0   0.0
    5 0.0000 0.03302 0.00000 1000000.0   0   0   0     0     0     0   0.0   0.0
    6 0.0000 0.04826 0.00000 1000000.0   0   0   0     0     0     0   0.0   0.0
    7 0.0000 0.12700 0.00000 1000000.0   0   0   0     0     0     0   0.0   0.0
    8 0.0000 0.18542 0.00000 1000000.0   0   0   0     0     0     0   0.0   0.0
    9 0.0000 0.17780 0.00000 1000000.0   0   0   0     0     0     0   0.0   0.0
   10 0.0000 0.09652 0.00000 1000000.0   0   0   0     0     0     0   0.0   0.0
   11 0.0000 0.04572 0.00000 1000000.0   0   0   0     0     0     0   0.0   0.0
   12 0.0000 0.19304 0.00000 1000000.0   0   0   0     0     0     0   0.0   0.0
   13 0.0000 0.23114 0.00000 1000000.0   0   0   0     0     0     0   0.0   0.0
   14 0.0000 0.17272 0.00000 1000000.0   0   0   0     0     0     0   0.0   0.0
   15 0.0000 0.03302 0.00000 1000000.0   0   0   0     0     0     0   0.0   0.0
   16 0.0000 0.02032 0.00000 1000000.0   0   0   0     0     0     0   0.0   0.0
   17 0.0000 0.04318 0.00000 1000000.0   0   0   0     0     0     0   0.0   0.0
   18 0.0000 0.16002 0.00000 1000000.0   0   0   0     0     0     0   0.0   0.0
   19 0.0000 0.10668 0.00000 1000000.0   0   0   0     0     0     0   0.0   0.0
   20 0.0000 0.12700 0.00000 1000000.0   0   0   0     0     0     0   0.0   0.0
   21 0.0000 0.18288 0.00000 1000000.0   0   0   0     0     0     0   0.0   0.0
   22 0.0000 0.07874 0.00000 1000000.0   0   0   0     0     0     0   0.0   0.0
   23 0.0000 0.08890 0.00000 1000000.0   0   0   0     0     0     0   0.0   0.0
   24 0.0000 0.08382 0.00000 1000000.0   0   0   0     0     0     0   0.0   0.0
   25 0.0000 0.06096 0.00000 1000000.0   0   0   0     0     0     0   0.0   0.0
   26 0.0000 0.15240 0.00000 1000000.0   0   0   0     0     0     0   0.0   0.0
   27 0.0000 0.04572 0.00000 1000000.0   0   0   0     0     0     0   0.0   0.0
   28 0.0000 0.03429 0.00000 1000000.0   0   0   0     0     0     0   0.0   0.0
   29 0.0000 0.02286 0.00000 1000000.0   0   0   0     0     0     0   0.0   0.0
   30 0.0000 0.05588 0.00000 1000000.0   0   0   0     0     0     0   0.0   0.0
   31 0.0000 0.10414 0.00000 1000000.0   0   0   0     0     0     0   0.0   0.0
   32 0.0000 0.11176 0.00000 1000000.0   0   0   0     0     0     0   0.0   0.0
   33 0.0000 0.14478 0.00000 1000000.0   0   0   0     0     0     0   0.0   0.0
   34 0.0000 0.26162 0.00000 1000000.0   0   0   0     0     0     0   0.0   0.0
   35 0.0000 0.19304 0.00000 1000000.0   0   0   0     0     0     0   0.0   0.0
   36 0.0000 0.20066 0.00000 1000000.0   0   0   0     0     0     0   0.0   0.0
   37 0.0000 0.15240 0.00000 1000000.0   0   0   0     0     0     0   0.0   0.0
   38 0.0000 0.21336 0.00000 1000000.0   0   0   0     0     0     0   0.0   0.0
   39 0.0000 0.10414 0.00000 1000000.0   0   0   0     0     0     0   0.0   0.0
   40 0.0000 0.23622 0.00000 1000000.0   0   0   0     0     0     0   0.0   0.0
   41 0.0000 0.27178 0.00000 1000000.0   0   0   0     0     0     0   0.0   0.0
   42 0.0000 0.17780 0.00000 1000000.0   0   0   0     0     0     0   0.0   0.0
   43 0.0000 0.31750 0.00000 1000000.0   0   0   0     0     0     0   0.0   0.0
   44 0.0000 0.23622 0.00000 1000000.0   0   0   0     0     0     0   0.0   0.0
   45 0.0000 0.06604 0.00000 1000000.0   0   0   0     0     0     0   0.0   0.0
   46 0.0000 0.13208 0.00000 1000000.0   0   0   0     0     0     0   0.0   0.0
   47 0.0000 0.28702 0.00000 1000000.0   0   0   0     0     0     0   0.0   0.0
   48 0.0000 0.24130 0.00000 1000000.0   0   0   0     0     0     0   0.0   0.0
   49 0.0000 0.14478 0.00000 1000000.0   0   0   0     0     0     0   0.0   0.0
   50 0.0000 0.16510 0.00000 1000000.0   0   0   0     0     0     0   0.0   0.0
   51 0.0000 0.07620 0.00000 1000000.0   0   0   0     0     0     0   0.0   0.0
   52 0.0000 0.06604 0.00000 1000000.0   0   0   0     0     0     0   0.0   0.0
   53 0.0000 0.02286 0.00000 1000000.0   0   0   0     0     0     0   0.0   0.0
   54 0.0000 0.01778 0.00000 1000000.0   0   0   0     0     0     0   0.0   0.0
   55 0.0000 0.05588 0.00000 1000000.0   0   0   0     0     0     0   0.0   0.0
   56 0.0000 0.18542 0.00000 1000000.0   0   0   0     0     0     0   0.0   0.0
   57 0.0000 0.20066 0.00000 1000000.0   0   0   0     0     0     0   0.0   0.0
   58 0.0000 0.14732 0.00000 1000000.0   0   0   0     0     0     0   0.0   0.0
   59 0.0000 0.05588 0.00000 1000000.0   0   0   0     0     0     0   0.0   0.0
   60 0.0000 0.12446 0.00000 1000000.0   0   0   0     0     0     0   0.0   0.0
   61 0.0000 0.21844 0.00000 1000000.0   0   0   0     0     0     0   0.0   0.0
   62 0.0000 0.15494 0.00000 1000000.0   0   0   0     0     0     0   0.0   0.0
   63 0.0000 0.17526 0.00000 1000000.0   0   0   0     0     0     0   0.0   0.0
   64 0.0000 0.03556 0.00000 1000000.0   0   0   0     0     0     0   0.0   0.0
   65 0.0000 0.05080 0.00000 1000000.0   0   0   0     0     0     0   0.0   0.0
   66 0.0000 0.06096 0.00000 1000000.0   0   0   0     0     0     0   0.0   0.0
   67 0.0000 0.04318 0.00000 1000000.0   0   0   0     0     0     0   0.0   0.0
   68 0.0000 0.06350 0.00000 1000000.0   0   0   0     0     0     0   0.0   0.0
   69 0.0000 0.02794 0.00000 1000000.0   0   0   0     0     0     0   0.0   0.0
   70 0.0000 0.05080 0.00000 1000000.0   0   0   0     0     0     0   0.0   0.0
   71 0.0000 0.06604 0.00000 1000000.0   0   0   0     0     0     0   0.0   0.0
   72 0.0000 0.17272 0.00000 1000000.0   0   0   0     0     0     0   0.0   0.0
   73 0.0000 0.22098 0.00000 1000000.0   0   0   0     0     0     0   0.0   0.0
   74 0.0000 0.09398 0.00000 1000000.0   0   0   0     0     0     0   0.0   0.0
   75 0.0000 0.10922 0.00000 1000000.0   0   0   0     0     0     0   0.0   0.0
   76 0.0000 0.13208 0.00000 1000000.0   0   0   0     0     0     0   0.0   0.0
   77 0.0000 0.19304 0.00000 1000000.0   0   0   0     0     0     0   0.0   0.0
   78 0.0000 0.15494 0.00000 1000000.0   0   0   0     0     0     0   0.0   0.0
   79 0.0000 0.08636 0.00000 1000000.0   0   0   0     0     0     0   0.0   0.0
   80 0.0000 0.12954 0.00000 1000000.0   0   0   0     0     0     0   0.0   0.0
   81 0.0000 0.13970 0.00000 1000000.0   0   0   0     0     0     0   0.0   0.0
   82 0.0000 0.20320 0.00000 1000000.0   0   0   0     0     0     0   0.0   0.0
   83 0.0000 0.15494 0.00000 1000000.0   0   0   0     0     0     0   0.0   0.0
   84 0.0000 0.11176 0.00000 1000000.0   0   0   0     0     0     0   0.0   0.0
   85 0.0000 0.10922 0.00000 1000000.0   0   0   0     0     0     0   0.0   0.0
   86 0.0000 0.17018 0.00000 1000000.0   0   0   0     0     0     0   0.0   0.0
   87 0.0000 0.12192 0.00000 1000000.0   0   0   0     0     0     0   0.0   0.0
   88 0.0000 0.12192 0.00000 1000000.0   0   0   0     0     0     0   0.0   0.0
   89 0.0000 0.08128 0.00000 1000000.0   0   0   0     0     0     0   0.0   0.0
   90 0.0000 0.19558 0.00000 1000000.0   0   0   0     0     0     0   0.0   0.0
   91 0.0000 0.00000 0.25400 1000000.0   0   0   0     0     0     0   0.0   0.0
   92 0.0000 0.00000 0.23114 1000000.0   0   0   0     0     0     0   0.0   0.0
   93 0.0000 0.00000 0.10922 1000000.0   0   0   0     0     0     0   0.0   0.0
   94 0.0000 0.00000 0.06604 1000000.0   0   0   0     0     0     0   0.0   0.0
   95 0.0000 0.00000 0.16256 1000000.0   0   0   0     0     0     0   0.0   0.0
   96 0.0000 0.00000 0.33274 1000000.0   0   0   0     0     0     0   0.0   0.0
   97 0.0000 0.00000 0.37338 1000000.0   0   0   0     0     0     0   0.0   0.0
   98 0.0000 0.00000 0.37846 1000000.0   0   0   0     0     0     0   0.0   0.0
   99 0.0000 0.00000 0.45720 1000000.0   0   0   0     0     0     0   0.0   0.0
  100 0.0000 0.00000 0.54864 1000000.0   0   0   0     0     0     0   0.0   0.0
  101 0.0000 0.00000 0.47244 1000000.0   0   0   0     0     0     0   0.0   0.0
  102 0.0000 0.00000 0.18288 1000000.0   0   0   0     0     0     0   0.0   0.0
  103 0.0000 0.00000 0.09652 1000000.0   0   0   0     0     0     0   0.0   0.0
  104 0.0000 0.00000 0.18034 1000000.0   0   0   0     0     0     0   0.0   0.0
  105 0.0000 0.00000 0.29210 1000000.0   0   0   0     0     0     0   0.0   0.0
  106 0.0000 0.00000 0.40640 1000000.0   0   0   0     0     0     0   0.0   0.0
  107 0.0000 0.00000 0.35052 1000000.0   0   0   0     0     0     0   0.0   0.0
  108 0.0000 0.00000 0.12446 1000000.0   0   0   0     0     0     0   0.0   0.0
  109 0.0000 0.00000 0.12446 1000000.0   0   0   0     0     0     0   0.0   0.0
  110 0.0000 0.00000 0.13716 1000000.0   0   0   0     0     0     0   0.0   0.0
  111 0.0000 0.00000 0.11430 1000000.0   0   0   0     0     0     0   0.0   0.0
  112 0.0000 0.00000 0.21590 1000000.0   0   0   0     0     0     0   0.0   0.0
  113 0.0000 0.00000 0.25908 1000000.0   0   0   0     0     0     0   0.0   0.0
  114 0.0000 0.00000 0.28194 1000000.0   0   0   0     0     0     0   0.0   0.0
  115 0.0000 0.00000 0.36068 1000000.0   0   0   0     0     0     0   0.0   0.0
  116 0.0000 0.00000 0.36830 1000000.0   0   0   0     0     0     0   0.0   0.0
  117 0.0000 0.00000 0.23622 1000000.0   0   0   0     0     0     0   0.0   0.0
  118 0.0000 0.00000 0.37846 1000000.0   0   0   0     0     0     0   0.0   0.0
  119 0.0000 0.00000 0.36322 1000000.0   0   0   0     0     0     0   0.0   0.0
  120 0.0000 0.00000 0.41148 1000000.0   0   0   0     0     0     0   0.0   0.0
  121 0.0000 0.00000 0.39624 1000000.0   0   0   0     0     0     0   0.0   0.0
  122 0.0000 0.00000 0.35306 1000000.0   0   0   0     0     0     0   0.0   0.0
  123 0.0000 0.00000 0.36322 1000000.0   0   0   0     0     0     0   0.0   0.0
  124 0.0000 0.00000 0.39878 1000000.0   0   0   0     0     0     0   0.0   0.0
  125 0.0000 0.00000 0.23876 1000000.0   0   0   0     0     0     0   0.0   0.0
  126 0.0000 0.00000 0.09398 1000000.0   0   0   0     0     0     0   0.0   0.0
  127 0.0000 0.00000 0.28956 1000000.0   0   0   0     0     0     0   0.0   0.0
  128 0.0000 0.00000 0.37084 1000000.0   0   0   0     0     0     0   0.0   0.0
  129 0.0000 0.00000 0.27432 1000000.0   0   0   0     0     0     0   0.0   0.0
  130 0.0000 0.00000 0.32512 1000000.0   0   0   0     0     0     0   0.0   0.0
  131 0.0000 0.00000 0.22860 1000000.0   0   0   0     0     0     0   0.0   0.0
  132 0.0000 0.00000 0.29972 1000000.0   0   0   0     0     0     0   0.0   0.0
  133 0.0000 0.00000 0.18288 1000000.0   0   0   0     0     0     0   0.0   0.0
  134 0.0000 0.00000 0.21336 1000000.0   0   0   0     0     0     0   0.0   0.0
  135 0.0000 0.00000 0.42926 1000000.0   0   0   0     0     0     0   0.0   0.0
  136 0.0000 0.00000 0.51816 1000000.0   0   0   0     0     0     0   0.0   0.0
  137 0.0000 0.00000 0.18542 1000000.0   0   0   0     0     0     0   0.0   0.0
  138 0.0000 0.00000 0.33528 1000000.0   0   0   0     0     0     0   0.0   0.0
  139 0.0000 0.00000 0.42672 1000000.0   0   0   0     0     0     0   0.0   0.0
  140 0.0000 0.00000 0.40640 1000000.0   0   0   0     0     0     0   0.0   0.0
  141 0.0000 0.00000 0.44450 1000000.0   0   0   0     0     0     0   0.0   0.0
  142 0.0000 0.00000 0.35052 1000000.0   0   0   0     0     0     0   0.0   0.0
  143 0.0000 0.00000 0.40894 1000000.0   0   0   0     0     0     0   0.0   0.0
  144 0.0000 0.00000 0.27940 1000000.0   0   0   0     0     0     0   0.0   0.0
  145 0.0000 0.00000 0.14732 1000000.0   0   0   0     0     0     0   0.0   0.0
  146 0.0000 0.00000 0.11938 1000000.0   0   0   0     0     0     0   0.0   0.0
  147 0.0000 0.00000 0.10922 1000000.0   0   0   0     0     0     0   0.0   0.0
  148 0.0000 0.00000 0.37846 1000000.0   0   0   0     0     0     0   0.0   0.0
  149 0.0000 0.00000 0.44196 1000000.0   0   0   0     0     0     0   0.0   0.0
  150 0.0000 0.00000 0.44958 1000000.0   0   0   0     0     0     0   0.0   0.0
  151 0.0000 0.00000 0.33528 1000000.0   0   0   0     0     0     0   0.0   0.0
  152 0.0000 0.00000 0.26162 1000000.0   0   0   0     0     0     0   0.0   0.0
  153 0.0000 0.00000 0.10414 1000000.0   0   0   0     0     0     0   0.0   0.0
  154 0.0000 0.00000 0.19050 1000000.0   0   0   0     0     0     0   0.0   0.0
  155 0.0000 0.00000 0.41656 1000000.0   0   0   0     0     0     0   0.0   0.0
  156 0.0000 0.00000 0.37592 1000000.0   0   0   0     0     0     0   0.0   0.0
  157 0.0000 0.00000 0.32258 1000000.0   0   0   0     0     0     0   0.0   0.0
  158 0.0000 0.00000 0.41910 1000000.0   0   0   0     0     0     0   0.0   0.0
  159 0.0000 0.00000 0.28448 1000000.0   0   0   0     0     0     0   0.0   0.0
  160 0.0000 0.00000 0.19304 1000000.0   0   0   0     0     0     0   0.0   0.0
  161 0.0000 0.00000 0.24638 1000000.0   0   0   0     0     0     0   0.0   0.0
  162 0.0000 0.00000 0.41148 1000000.0   0   0   0     0     0     0   0.0   0.0
  163 0.0000 0.00000 0.41402 1000000.0   0   0   0     0     0     0   0.0   0.0
  164 0.0000 0.00000 0.46482 1000000.0   0   0   0     0     0     0   0.0   0.0
  165 0.0000 0.00000 0.44958 1000000.0   0   0   0     0     0     0   0.0   0.0
  166 0.0000 0.00000 0.26924 1000000.0   0   0   0     0     0     0   0.0   0.0
  167 0.0000 0.00000 0.43180 1000000.0   0   0   0     0     0     0   0.0   0.0
  168 0.0000 0.00000 0.39370 1000000.0   0   0   0     0     0     0   0.0   0.0
  169 0.0000 0.00000 0.34036 1000000.0   0   0   0     0     0     0   0.0   0.0
  170 0.0000 0.00000 0.46990 1000000.0   0   0   0     0     0     0   0.0   0.0
  171 0.0000 0.00000 0.44450 1000000.0   0   0   0     0     0     0   0.0   0.0
  172 0.0000 0.00000 0.34798 1000000.0   0   0   0     0     0     0   0.0   0.0
  173 0.0000 0.00000 0.40640 1000000.0   0   0   0     0     0     0   0.0   0.0
  174 0.0000 0.00000 0.32004 1000000.0   0   0   0     0     0     0   0.0   0.0
  175 0.0000 0.00000 0.40132 1000000.0   0   0   0     0     0     0   0.0   0.0
  176 2.1611 0.00000 0.34036 1000000.0   0   0   0     0     0     0   0.0   0.0
  177 1.6612 0.00000 0.43942 1000000.0   0   0   0     0     0     0   0.0   0.0
  178 1.9705 0.00000 0.34036 1000000.0   0   0   0     0     0     0   0.0   0.0
  179 0.0000 0.00000 0.35052 1000000.0   0   0   0     0     0     0   0.0   0.0
  180 3.3071 0.00000 0.46990 1000000.0   0   0   0     0     0     0   0.0   0.0
  181 0.0000 0.00000 0.46482 1000000.0   0   0   0     0     0     0   0.0   0.0
  182 3.3020 0.00000 0.58928 1000000.0   0   0   0     0     0     0   0.0   0.0
  183 0.0000 0.00000 0.44958 1000000.0   0   0   0     0     0     0   0.0   0.0
  184 2.4773 0.00000 0.37592 1000000.0   0   0   0     0     0     0   0.0   0.0
  185 0.0000 0.00000 0.29972 1000000.0   0   0   0     0     0     0   0.0   0.0
  186 0.0000 0.00000 0.39370 1000000.0   0   0   0     0     0     0   0.0   0.0
  187 0.0000 0.00000 0.39370 1000000.0   0   0   0     0     0     0   0.0   0.0
  188 0.0000 0.00000 0.41148 1000000.0   0   0   0     0     0     0   0.0   0.0
  189 0.0000 0.00000 0.42672 1000000.0   0   0   0     0     0     0   0.0   0.0
  190 0.0000 0.00000 0.46482 1000000.0   0   0   0     0     0     0   0.0   0.0
  191 0.0000 0.00000 0.41910 1000000.0   0   0   0     0     0     0   0.0   0.0
  192 0.0000 0.00000 0.33020 1000000.0   0   0   0     0     0     0   0.0   0.0
  193 0.0000 0.00000 0.43434 1000000.0   0   0   0     0     0     0   0.0   0.0
  194 1.3602 0.00000 0.39370 1000000.0   0   0   0     0     0     0   0.0   0.0
  195 1.2700 0.00000 0.35306 1000000.0   0   0   0     0     0     0   0.0   0.0
  196 1.2700 0.00000 0.41402 1000000.0   0   0   0     0     0     0   0.0   0.0
  197 1.2700 0.00000 0.43180 1000000.0   0   0   0     0     0     0   0.0   0.0
  198 1.2802 0.00000 0.46736 1000000.0   0   0   0     0     0     0   0.0   0.0
  199 2.5400 0.00000 0.44450 1000000.0   0   0   0     0     0     0   0.0   0.0
  200 0.0000 0.00000 0.41910 1000000.0   0   0   0     0     0     0   0.0   0.0
  201 1.2700 0.00000 0.43942 1000000.0   0   0   0     0     0     0   0.0   0.0
  202 0.0000 0.00000 0.47244 1000000.0   0   0   0     0     0     0   0.0   0.0
  203 0.0000 0.00000 0.46736 1000000.0   0   0   0     0     0     0   0.0   0.0
  204 0.0000 0.00000 0.45974 1000000.0   0   0   0     0     0     0   0.0   0.0
  205 0.0000 0.00000 0.46990 1000000.0   0   0   0     0     0     0   0.0   0.0
  206 0.0000 0.00000 0.46482 1000000.0   0   0   0     0     0     0   0.0   0.0
  207 0.0000 0.00000 0.44958 1000000.0   0   0   0     0     0     0   0.0   0.0
  208 0.0000 0.00000 0.34036 1000000.0   0   0   0     0     0     0   0.0   0.0
  209 0.0000 0.00000 0.36068 1000000.0   0   0   0     0     0     0   0.0   0.0
  210 0.0000 0.00000 0.39370 1000000.0   0   0   0     0     0     0   0.0   0.0
  211 0.0000 0.00000 0.39116 1000000.0   0   0   0     0     0     0   0.0   0.0
  212 0.0000 0.00000 0.41402 1000000.0   0   0   0     0     0     0   0.0   0.0
  213 0.0000 0.00000 0.43942 1000000.0   0   0   0     0     0     0   0.0   0.0
  214 0.0000 0.00000 0.43688 1000000.0   0   0   0     0     0     0   0.0   0.0
  215 0.0000 0.00000 0.39624 1000000.0   0   0   0     0     0     0   0.0   0.0
  216 0.0000 0.00000 0.35814 1000000.0   0   0   0     0     0     0   0.0   0.0
  217 0.0000 0.00000 0.19558 1000000.0   0   0   0     0     0     0   0.0   0.0
  218 0.0000 0.00000 0.14986 1000000.0   0   0   0     0     0     0   0.0   0.0
  219 0.0000 0.00000 0.34036 1000000.0   0   0   0     0     0     0   0.0   0.0
  220 0.0000 0.00000 0.35560 1000000.0   0   0   0     0     0     0   0.0   0.0
  221 0.0000 0.00000 0.40640 1000000.0   0   0   0     0     0     0   0.0   0.0
  222 0.0000 0.00000 0.46228 1000000.0   0   0   0     0     0     0   0.0   0.0
  223 0.0000 0.00000 0.39878 1000000.0   0   0   0     0     0     0   0.0   0.0
  224 0.0000 0.00000 0.26924 1000000.0   0   0   0     0     0     0   0.0   0.0
  225 0.0000 0.00000 0.35560 1000000.0   0   0   0     0     0     0   0.0   0.0
  226 0.0000 0.00000 0.41148 1000000.0   0   0   0     0     0     0   0.0   0.0
  227 0.0000 0.00000 0.43688 1000000.0   0   0   0     0     0     0   0.0   0.0
  228 0.0000 0.00000 0.32258 1000000.0   0   0   0     0     0     0   0.0   0.0
  229 0.0000 0.00000 0.44958 1000000.0   0   0   0     0     0     0   0.0   0.0
  230 0.0000 0.00000 0.55372 1000000.0   0   0   0     0     0     0   0.0   0.0
  231 0.0000 0.00000 0.29972 1000000.0   0   0   0     0     0     0   0.0   0.0
  232 0.0000 0.00000 0.25146 1000000.0   0   0   0     0     0     0   0.0   0.0
  233 0.0000 0.00000 0.11938 1000000.0   0   0   0     0     0     0   0.0   0.0
  234 0.0000 0.00000 0.36068 1000000.0   0   0   0     0     0     0   0.0   0.0
  235 0.0000 0.00000 0.40386 1000000.0   0   0   0     0     0     0   0.0   0.0
  236 0.0000 0.00000 0.36322 1000000.0   0   0   0     0     0     0   0.0   0.0
  237 0.0000 0.00000 0.28194 1000000.0   0   0   0     0     0     0   0.0   0.0
  238 0.0000 0.00000 0.36830 1000000.0   0   0   0     0     0     0   0.0   0.0
  239 0.0000 0.00000 0.32004 1000000.0   0   0   0     0     0     0   0.0   0.0
  240 0.0000 0.00000 0.29972 1000000.0   0   0   0     0     0     0   0.0   0.0
  241 0.0000 0.00000 0.37846 1000000.0   0   0   0     0     0     0   0.0   0.0
  242 0.0000 0.00000 0.46482 1000000.0   0   0   0     0     0     0   0.0   0.0
  243 0.0000 0.00000 0.37592 1000000.0   0   0   0     0     0     0   0.0   0.0
  244 0.0000 0.00000 0.28194 1000000.0   0   0   0     0     0     0   0.0   0.0
  245 0.0000 0.00000 0.42926 1000000.0   0   0   0     0     0     0   0.0   0.0
  246 0.0000 0.00000 0.37084 1000000.0   0   0   0     0     0     0   0.0   0.0
  247 0.0000 0.00000 0.17272 1000000.0   0   0   0     0     0     0   0.0   0.0
  248 0.0000 0.00000 0.27432 1000000.0   0   0   0     0     0     0   0.0   0.0
  249 0.0000 0.00000 0.34290 1000000.0   0   0   0     0     0     0   0.0   0.0
  250 0.0000 0.00000 0.26924 1000000.0   0   0   0     0     0     0   0.0   0.0
  251 0.0000 0.00000 0.25400 1000000.0   0   0   0     0     0     0   0.0   0.0
  252 0.0000 0.00000 0.21336 1000000.0   0   0   0     0     0     0   0.0   0.0
  253 0.0000 0.00000 0.23622 1000000.0   0   0   0     0     0     0   0.0   0.0
  254 0.0000 0.00000 0.25146 1000000.0   0   0   0     0     0     0   0.0   0.0
  255 0.0000 0.00000 0.29210 1000000.0   0   0   0     0     0     0   0.0   0.0
  256 0.0000 0.00000 0.24638 1000000.0   0   0   0     0     0     0   0.0   0.0
  257 0.0000 0.00000 0.21844 1000000.0   0   0   0     0     0     0   0.0   0.0
  258 0.0000 0.00000 0.29210 1000000.0   0   0   0     0     0     0   0.0   0.0
  259 0.0000 0.00000 0.32258 1000000.0   0   0   0     0     0     0   0.0   0.0
  260 0.0000 0.00000 0.46228 1000000.0   0   0   0     0     0     0   0.0   0.0
  261 0.0000 0.00000 0.37592 1000000.0   0   0   0     0     0     0   0.0   0.0
  262 0.0000 0.00000 0.20066 1000000.0   0   0   0     0     0     0   0.0   0.0
  263 0.0000 0.00000 0.18288 1000000.0   0   0   0     0     0     0   0.0   0.0
  264 0.0000 0.00000 0.04826 1000000.0   0   0   0     0     0     0   0.0   0.0
  265 0.0000 0.00000 0.04572 1000000.0   0   0   0     0     0     0   0.0   0.0
  266 0.0000 0.00000 0.23622 1000000.0   0   0   0     0     0     0   0.0   0.0
  267 0.0000 0.00000 0.22860 1000000.0   0   0   0     0     0     0   0.0   0.0
  268 0.0000 0.00000 0.22606 1000000.0   0   0   0     0     0     0   0.0   0.0
  269 0.0000 0.00000 0.28956 1000000.0   0   0   0     0     0     0   0.0   0.0
  270 0.0000 0.00000 0.22098 1000000.0   0   0   0     0     0     0   0.0   0.0
  271 0.0000 0.00000 0.28702 1000000.0   0   0   0     0     0     0   0.0   0.0
  272 0.0000 0.00000 0.23114 1000000.0   0   0   0     0     0     0   0.0   0.0
  273 0.0000 0.00000 0.06604 1000000.0   0   0   0     0     0     0   0.0   0.0
  274 0.0000 0.02286 0.00000 1000000.0   0   0   0     0     0     0   0.0   0.0
  275 0.0000 0.21844 0.00000 1000000.0   0   0   0     0     0     0   0.0   0.0
  276 0.0000 0.13462 0.00000 1000000.0   0   0   0     0     0     0   0.0   0.0
  277 0.0000 0.19050 0.00000 1000000.0   0   0   0     0     0     0   0.0   0.0
  278 0.0000 0.11938 0.00000 1000000.0   0   0   0     0     0     0   0.0   0.0
  279 0.0000 0.19558 0.00000 1000000.0   0   0   0     0     0     0   0.0   0.0
  280 0.0000 0.18796 0.00000 1000000.0   0   0   0     0     0     0   0.0   0.0
  281 0.0000 0.23368 0.00000 1000000.0   0   0   0     0     0     0   0.0   0.0
  282 0.0000 0.24130 0.00000 1000000.0   0   0   0     0     0     0   0.0   0.0
  283 0.0000 0.21082 0.00000 1000000.0   0   0   0     0     0     0   0.0   0.0
  284 0.0000 0.15494 0.00000 1000000.0   0   0   0     0     0     0   0.0   0.0
  285 0.0000 0.02032 0.00000 1000000.0   0   0   0     0     0     0   0.0   0.0
  286 0.0000 0.07366 0.00000 1000000.0   0   0   0     0     0     0   0.0   0.0
  287 0.0000 0.13716 0.00000 1000000.0   0   0   0     0     0     0   0.0   0.0
  288 0.0000 0.17780 0.00000 1000000.0   0   0   0     0     0     0   0.0   0.0
  289 0.0000 0.18288 0.00000 1000000.0   0   0   0     0     0     0   0.0   0.0
  290 0.0000 0.24892 0.00000 1000000.0   0   0   0     0     0     0   0.0   0.0
  291 0.0000 0.36322 0.00000 1000000.0   0   0   0     0     0     0   0.0   0.0
  292 0.0000 0.42164 0.00000 1000000.0   0   0   0     0     0     0   0.0   0.0
  293 0.0000 0.26924 0.00000 1000000.0   0   0   0     0     0     0   0.0   0.0
  294 0.0000 0.10922 0.00000 1000000.0   0   0   0     0     0     0   0.0   0.0
  295 0.0000 0.06858 0.00000 1000000.0   0   0   0     0     0     0   0.0   0.0
  296 0.0000 0.03302 0.00000 1000000.0   0   0   0     0     0     0   0.0   0.0
  297 0.0000 0.02286 0.00000 1000000.0   0   0   0     0     0     0   0.0   0.0
  298 0.0000 0.02794 0.00000 1000000.0   0   0   0     0     0     0   0.0   0.0
  299 0.0000 0.02540 0.00000 1000000.0   0   0   0     0     0     0   0.0   0.0
  300 0.0000 0.02286 0.00000 1000000.0   0   0   0     0     0     0   0.0   0.0
  301 0.0000 0.04064 0.00000 1000000.0   0   0   0     0     0     0   0.0   0.0
  302 0.0000 0.06604 0.00000 1000000.0   0   0   0     0     0     0   0.0   0.0
  303 0.0000 0.10160 0.00000 1000000.0   0   0   0     0     0     0   0.0   0.0
  304 0.0000 0.13462 0.00000 1000000.0   0   0   0     0     0     0   0.0   0.0
  305 0.0000 0.15748 0.00000 1000000.0   0   0   0     0     0     0   0.0   0.0
  306 0.0000 0.11176 0.00000 1000000.0   0   0   0     0     0     0   0.0   0.0
  307 0.0000 0.14478 0.00000 1000000.0   0   0   0     0     0     0   0.0   0.0
  308 0.0000 0.19050 0.00000 1000000.0   0   0   0     0     0     0   0.0   0.0
  309 0.0000 0.23876 0.00000 1000000.0   0   0   0     0     0     0   0.0   0.0
  310 0.0000 0.11430 0.00000 1000000.0   0   0   0     0     0     0   0.0   0.0
  311 0.0000 0.20320 0.00000 1000000.0   0   0   0     0     0     0   0.0   0.0
  312 0.0000 0.12954 0.00000 1000000.0   0   0   0     0     0     0   0.0   0.0
  313 0.0000 0.12446 0.00000 1000000.0   0   0   0     0     0     0   0.0   0.0
  314 0.0000 0.15494 0.00000 1000000.0   0   0   0     0     0     0   0.0   0.0
  315 0.0000 0.28956 0.00000 1000000.0   0   0   0     0     0     0   0.0   0.0
  316 0.0000 0.13462 0.00000 1000000.0   0   0   0     0     0     0   0.0   0.0
  317 0.0000 0.24892 0.00000 1000000.0   0   0   0     0     0     0   0.0   0.0
  318 0.0000 0.18542 0.00000 1000000.0   0   0   0     0     0     0   0.0   0.0
  319 0.0000 0.18796 0.00000 1000000.0   0   0   0     0     0     0   0.0   0.0
  320 0.0000 0.09906 0.00000 1000000.0   0   0   0     0     0     0   0.0   0.0
  321 0.0000 0.27432 0.00000 1000000.0   0   0   0     0     0     0   0.0   0.0
  322 0.0000 0.19304 0.00000 1000000.0   0   0   0     0     0     0   0.0   0.0
  323 0.0000 0.18796 0.00000 1000000.0   0   0   0     0     0     0   0.0   0.0
  324 0.0000 0.16510 0.00000 1000000.0   0   0   0     0     0     0   0.0   0.0
  325 0.0000 0.33274 0.00000 1000000.0   0   0   0     0     0     0   0.0   0.0
  326 0.0000 0.15240 0.00000 1000000.0   0   0   0     0     0     0   0.0   0.0
  327 0.0000 0.01016 0.00000 1000000.0   0   0   0     0     0     0   0.0   0.0
  328 0.0000 0.01778 0.00000 1000000.0   0   0   0     0     0     0   0.0   0.0
  329 0.0000 0.06096 0.00000 1000000.0   0   0   0     0     0     0   0.0   0.0
  330 0.0000 0.05842 0.00000 1000000.0   0   0   0     0     0     0   0.0   0.0
  331 0.0000 0.18288 0.00000 1000000.0   0   0   0     0     0     0   0.0   0.0
  332 0.0000 0.28194 0.00000 1000000.0   0   0   0     0     0     0   0.0   0.0
  333 0.0000 0.10668 0.00000 1000000.0   0   0   0     0     0     0   0.0   0.0
  334 0.0000 0.02540 0.00000 1000000.0   0   0   0     0     0     0   0.0   0.0
  335 0.0000 0.11430 0.00000 1000000.0   0   0   0     0     0     0   0.0   0.0
  336 0.0000 0.16510 0.00000 1000000.0   0   0   0     0     0     0   0.0   0.0
  337 0.0000 0.17018 0.00000 1000000.0   0   0   0     0     0     0   0.0   0.0
  338 0.0000 0.16256 0.00000 1000000.0   0   0   0     0     0     0   0.0   0.0
  339 0.0000 0.33782 0.00000 1000000.0   0   0   0     0     0     0   0.0   0.0
  340 0.0000 0.25146 0.00000 1000000.0   0   0   0     0     0     0   0.0   0.0
  341 0.0000 0.09144 0.00000 1000000.0   0   0   0     0     0     0   0.0   0.0
  342 0.0000 0.03302 0.00000 1000000.0   0   0   0     0     0     0   0.0   0.0
  343 0.0000 0.13970 0.00000 1000000.0   0   0   0     0     0     0   0.0   0.0
  344 0.0000 0.21082 0.00000 1000000.0   0   0   0     0     0     0   0.0   0.0
  345 0.0000 0.04572 0.00000 1000000.0   0   0   0     0     0     0   0.0   0.0
  346 0.0000 0.04064 0.00000 1000000.0   0   0   0     0     0     0   0.0   0.0
  347 0.0000 0.13716 0.00000 1000000.0   0   0   0     0     0     0   0.0   0.0
  348 0.0000 0.11684 0.00000 1000000.0   0   0   0     0     0     0   0.0   0.0
  349 0.0000 0.10668 0.00000 1000000.0   0   0   0     0     0     0   0.0   0.0
  350 0.0000 0.33020 0.00000 1000000.0   0   0   0     0     0     0   0.0   0.0
  351 0.0000 0.06604 0.00000 1000000.0   0   0   0     0     0     0   0.0   0.0
  352 0.0000 0.22860 0.00000 1000000.0   0   0   0     0     0     0   0.0   0.0
  353 0.0000 0.19304 0.00000 1000000.0   0   0   0     0     0     0   0.0   0.0
  354 0.0000 0.20574 0.00000 1000000.0   0   0   0     0     0     0   0.0   0.0
  355 0.0000 0.16510 0.00000 1000000.0   0   0   0     0     0     0   0.0   0.0
  356 0.0000 0.20320 0.00000 1000000.0   0   0   0     0     0     0   0.0   0.0
  357 0.0000 0.07366 0.00000 1000000.0   0   0   0     0     0     0   0.0   0.0
  358 0.0000 0.07620 0.00000 1000000.0   0   0   0     0     0     0   0.0   0.0
  359 0.0000 0.12954 0.00000 1000000.0   0   0   0     0     0     0   0.0   0.0
  360 0.0000 0.16510 0.00000 1000000.0   0   0   0     0     0     0   0.0   0.0
  361 0.0000 0.09144 0.00000 1000000.0   0   0   0     0     0     0   0.0   0.0
  362 0.0000 0.19050 0.00000 1000000.0   0   0   0     0     0     0   0.0   0.0
  363 0.0000 0.07874 0.00000 1000000.0   0   0   0     0     0     0   0.0   0.0
  364 0.0000 0.03302 0.00000 1000000.0   0   0   0     0     0     0   0.0   0.0
  365 0.0000 0.10668 0.00000 1000000.0   0   0   0     0     0     0   0.0   0.0
  366 0.0000 0.12700 0.00000 1000000.0   0   0   0     0     0     0   0.0   0.0