Pcp_File_Version=4
*** BLOCK I: ATMOSPHERIC INFORMATION  **********************************
MaxAL (MaxAL = number of atmospheric data-records)
255
lDailyVar lSinusVar lLai lBCCycles lInterc 
f f f f f
hCritS (max. allowed pressure head at the soil surface)
1e+30
 tAtm   Prec    rSoil    rRoot    hCritA  rB  hB  ht  tTop  tBot  Ampl  cTop  cBot
    1 0.0000 0.000000 0.000000 1000000.0   0   0   0     0     0     0   0.0   0.0
    2 0.0000 0.019003 0.000000 1000000.0   0   0   0     0     0     0   0.0   0.0
    3 0.0000 0.032552 0.000000 1000000.0   0   0   0     0     0     0   0.0   0.0
    4 0.0000 0.036757 0.000000 1000000.0   0   0   0     0     0     0   0.0   0.0
    5 0.0000 0.021706 0.000000 1000000.0   0   0   0     0     0     0   0.0   0.0
    6 0.0000 0.014415 0.000000 1000000.0   0   0   0     0     0     0   0.0   0.0
    7 0.0000 0.012667 0.000000 1000000.0   0   0   0     0     0     0   0.0   0.0
    8 0.0000 0.025652 0.000000 1000000.0   0   0   0     0     0     0   0.0   0.0
    9 0.0000 0.017692 0.000000 1000000.0   0   0   0     0     0     0   0.0   0.0
   10 0.0000 0.019732 0.000000 1000000.0   0   0   0     0     0     0   0.0   0.0
   11 0.0000 0.037551 0.000000 1000000.0   0   0   0     0     0     0   0.0   0.0
   12 0.0000 0.041891 0.000000 1000000.0   0   0   0     0     0     0   0.0   0.0
   13 0.0000 0.039502 0.000000 1000000.0   0   0   0     0     0     0   0.0   0.0
   14 0.0000 0.043750 0.000000 1000000.0   0   0   0     0     0     0   0.0   0.0
   15 0.0000 0.018898 0.000000 1000000.0   0   0   0     0     0     0   0.0   0.0
   16 0.0000 0.022269 0.000000 1000000.0   0   0   0     0     0     0   0.0   0.0
   17 0.0000 0.048639 0.000000 1000000.0   0   0   0     0     0     0   0.0   0.0
   18 0.0000 0.030881 0.000000 1000000.0   0   0   0     0     0     0   0.0   0.0
   19 0.0000 0.024109 0.000000 1000000.0   0   0   0     0     0     0   0.0   0.0
   20 0.0000 0.013024 0.000000 1000000.0   0   0   0     0     0     0   0.0   0.0
   21 0.0000 0.023140 0.000000 1000000.0   0   0   0     0     0     0   0.0   0.0
   22 0.0000 0.039327 0.000000 1000000.0   0   0   0     0     0     0   0.0   0.0
   23 0.0000 0.022362 0.000000 1000000.0   0   0   0     0     0     0   0.0   0.0
   24 0.0000 0.028946 0.000000 1000000.0   0   0   0     0     0     0   0.0   0.0
   25 0.0000 0.019449 0.000000 1000000.0   0   0   0     0     0     0   0.0   0.0
   26 0.0000 0.016890 0.000000 1000000.0   0   0   0     0     0     0   0.0   0.0
   27 0.0000 0.022478 0.000000 1000000.0   0   0   0     0     0     0   0.0   0.0
   28 0.0000 0.021937 0.000000 1000000.0   0   0   0     0     0     0   0.0   0.0
   29 0.0000 0.027990 0.000000 1000000.0   0   0   0     0     0     0   0.0   0.0
   30 0.0000 0.023142 0.000000 1000000.0   0   0   0     0     0     0   0.0   0.0
   31 0.0000 0.044819 0.000000 1000000.0   0   0   0     0     0     0   0.0   0.0
   32 0.0000 0.055786 0.000000 1000000.0   0   0   0     0     0     0   0.0   0.0
   33 0.0000 0.043836 0.000000 1000000.0   0   0   0     0     0     0   0.0   0.0
   34 0.0000 0.033874 0.000000 1000000.0   0   0   0     0     0     0   0.0   0.0
   35 0.0000 0.034547 0.000000 1000000.0   0   0   0     0     0     0   0.0   0.0
   36 0.0000 0.031430 0.000000 1000000.0   0   0   0     0     0     0   0.0   0.0
   37 0.0000 0.028656 0.000000 1000000.0   0   0   0     0     0     0   0.0   0.0
   38 0.0000 0.027771 0.000000 1000000.0   0   0   0     0     0     0   0.0   0.0
   39 0.0000 0.035806 0.000000 1000000.0   0   0   0     0     0     0   0.0   0.0
   40 0.0000 0.030609 0.000000 1000000.0   0   0   0     0     0     0   0.0   0.0
   41 0.0000 0.025774 0.000000 1000000.0   0   0   0     0     0     0   0.0   0.0
   42 0.0000 0.019082 0.000000 1000000.0   0   0   0     0     0     0   0.0   0.0
   43 0.0000 0.017206 0.000000 1000000.0   0   0   0     0     0     0   0.0   0.0
   44 0.0000 0.018679 0.000000 1000000.0   0   0   0     0     0     0   0.0   0.0
   45 0.0000 0.032661 0.000000 1000000.0   0   0   0     0     0     0   0.0   0.0
   46 0.0000 0.048771 0.000000 1000000.0   0   0   0     0     0     0   0.0   0.0
   47 0.0000 0.041223 0.000000 1000000.0   0   0   0     0     0     0   0.0   0.0
   48 0.0000 0.045040 0.000000 1000000.0   0   0   0     0     0     0   0.0   0.0
   49 0.0000 0.052474 0.000000 1000000.0   0   0   0     0     0     0   0.0   0.0
   50 0.0000 0.049002 0.000000 1000000.0   0   0   0     0     0     0   0.0   0.0
   51 0.0000 0.063701 0.000000 1000000.0   0   0   0     0     0     0   0.0   0.0
   52 0.0000 0.094805 0.000000 1000000.0   0   0   0     0     0     0   0.0   0.0
   53 0.0000 0.047502 0.000000 1000000.0   0   0   0     0     0     0   0.0   0.0
   54 0.0000 0.094023 0.000000 1000000.0   0   0   0     0     0     0   0.0   0.0
   55 0.0000 0.130076 0.000000 1000000.0   0   0   0     0     0     0   0.0   0.0
   56 0.0000 0.122612 0.000000 1000000.0   0   0   0     0     0     0   0.0   0.0
   57 0.0000 0.125973 0.000000 1000000.0   0   0   0     0     0     0   0.0   0.0
   58 0.0000 0.116313 0.000000 1000000.0   0   0   0     0     0     0   0.0   0.0
   59 0.0000 0.094837 0.000000 1000000.0   0   0   0     0     0     0   0.0   0.0
   60 0.0000 0.118616 0.000000 1000000.0   0   0   0     0     0     0   0.0   0.0
   61 0.0000 0.113266 0.000000 1000000.0   0   0   0     0     0     0   0.0   0.0
   62 0.0000 0.054866 0.000000 1000000.0   0   0   0     0     0     0   0.0   0.0
   63 0.0000 0.085262 0.000000 1000000.0   0   0   0     0     0     0   0.0   0.0
   64 0.0000 0.118912 0.000000 1000000.0   0   0   0     0     0     0   0.0   0.0
   65 0.0000 0.102428 0.000000 1000000.0   0   0   0     0     0     0   0.0   0.0
   66 0.0000 0.134340 0.000000 1000000.0   0   0   0     0     0     0   0.0   0.0
   67 0.0000 0.146529 0.000000 1000000.0   0   0   0     0     0     0   0.0   0.0
   68 0.0000 0.156204 0.000000 1000000.0   0   0   0     0     0     0   0.0   0.0
   69 0.0000 0.128986 0.000000 1000000.0   0   0   0     0     0     0   0.0   0.0
   70 0.0000 0.139209 0.000000 1000000.0   0   0   0     0     0     0   0.0   0.0
   71 0.0000 0.139431 0.000000 1000000.0   0   0   0     0     0     0   0.0   0.0
   72 0.0000 0.107917 0.000000 1000000.0   0   0   0     0     0     0   0.0   0.0
   73 0.0000 0.128282 0.000000 1000000.0   0   0   0     0     0     0   0.0   0.0
   74 0.0000 0.118832 0.000000 1000000.0   0   0   0     0     0     0   0.0   0.0
   75 0.0000 0.126777 0.000000 1000000.0   0   0   0     0     0     0   0.0   0.0
   76 0.0000 0.111255 0.000000 1000000.0   0   0   0     0     0     0   0.0   0.0
   77 0.0000 0.111219 0.000000 1000000.0   0   0   0     0     0     0   0.0   0.0
   78 0.0000 0.207741 0.000000 1000000.0   0   0   0     0     0     0   0.0   0.0
   79 0.0000 0.142857 0.000000 1000000.0   0   0   0     0     0     0   0.0   0.0
   80 0.0000 0.185023 0.000000 1000000.0   0   0   0     0     0     0   0.0   0.0
   81 0.0000 0.168168 0.000000 1000000.0   0   0   0     0     0     0   0.0   0.0
   82 0.0000 0.173443 0.000000 1000000.0   0   0   0     0     0     0   0.0   0.0
   83 0.0000 0.211576 0.000000 1000000.0   0   0   0     0     0     0   0.0   0.0
   84 0.0000 0.293820 0.000000 1000000.0   0   0   0     0     0     0   0.0   0.0
   85 0.0000 0.289109 0.000000 1000000.0   0   0   0     0     0     0   0.0   0.0
   86 0.0000 0.233236 0.000000 1000000.0   0   0   0     0     0     0   0.0   0.0
   87 0.0000 0.195563 0.000000 1000000.0   0   0   0     0     0     0   0.0   0.0
   88 0.0000 0.161618 0.000000 1000000.0   0   0   0     0     0     0   0.0   0.0
   89 0.0000 0.168027 0.000000 1000000.0   0   0   0     0     0     0   0.0   0.0
   90 0.0000 0.133706 0.000000 1000000.0   0   0   0     0     0     0   0.0   0.0
   91 0.3200 0.000000 0.086936 1000000.0   0   0   0     0     0     0   0.0   0.0
   92 0.1000 0.000000 0.166552 1000000.0   0   0   0     0     0     0   0.0   0.0
   93 0.0900 0.000000 0.120932 1000000.0   0   0   0     0     0     0   0.0   0.0
   94 0.0000 0.000000 0.154587 1000000.0   0   0   0     0     0     0   0.0   0.0
   95 0.0000 0.000000 0.243092 1000000.0   0   0   0     0     0     0   0.0   0.0
   96 0.0000 0.000000 0.295975 1000000.0   0   0   0     0     0     0   0.0   0.0
   97 0.0400 0.000000 0.188071 1000000.0   0   0   0     0     0     0   0.0   0.0
   98 0.1400 0.000000 0.251824 1000000.0   0   0   0     0     0     0   0.0   0.0
   99 0.0000 0.000000 0.228632 1000000.0   0   0   0     0     0     0   0.0   0.0
  100 0.0000 0.000000 0.327223 1000000.0   0   0   0     0     0     0   0.0   0.0
  101 0.0500 0.000000 0.234191 1000000.0   0   0   0     0     0     0   0.0   0.0
  102 0.2000 0.000000 0.159636 1000000.0   0   0   0     0     0     0   0.0   0.0
  103 0.0000 0.000000 0.257533 1000000.0   0   0   0     0     0     0   0.0   0.0
  104 0.0300 0.000000 0.302817 1000000.0   0   0   0     0     0     0   0.0   0.0
  105 0.5080 0.000000 0.319548 1000000.0   0   0   0     0     0     0   0.0   0.0
  106 0.1000 0.000000 0.201365 1000000.0   0   0   0     0     0     0   0.0   0.0
  107 0.0000 0.000000 0.196652 1000000.0   0   0   0     0     0     0   0.0   0.0
  108 0.0000 0.000000 0.276843 1000000.0   0   0   0     0     0     0   0.0   0.0
  109 0.0400 0.000000 0.235171 1000000.0   0   0   0     0     0     0   0.0   0.0
  110 0.0000 0.000000 0.240054 1000000.0   0   0   0     0     0     0   0.0   0.0
  111 0.1100 0.000000 0.212589 1000000.0   0   0   0     0     0     0   0.0   0.0
  112 1.2700 0.000000 0.255031 1000000.0   0   0   0     0     0     0   0.0   0.0
  113 0.0000 0.000000 0.308628 1000000.0   0   0   0     0     0     0   0.0   0.0
  114 0.0000 0.000000 0.316713 1000000.0   0   0   0     0     0     0   0.0   0.0
  115 0.0000 0.000000 0.403107 1000000.0   0   0   0     0     0     0   0.0   0.0
  116 0.0300 0.000000 0.289755 1000000.0   0   0   0     0     0     0   0.0   0.0
  117 0.0400 0.000000 0.263856 1000000.0   0   0   0     0     0     0   0.0   0.0
  118 0.0000 0.000000 0.389894 1000000.0   0   0   0     0     0     0   0.0   0.0
  119 0.0600 0.000000 0.218913 1000000.0   0   0   0     0     0     0   0.0   0.0
  120 0.0000 0.000000 0.304197 1000000.0   0   0   0     0     0     0   0.0   0.0
  121 0.0000 0.000000 0.388618 1000000.0   0   0   0     0     0     0   0.0   0.0
  122 0.0000 0.000000 0.413980 1000000.0   0   0   0     0     0     0   0.0   0.0
  123 0.0000 0.000000 0.469684 1000000.0   0   0   0     0     0     0   0.0   0.0
  124 0.8100 0.000000 0.175843 1000000.0   0   0   0     0     0     0   0.0   0.0
  125 0.3400 0.000000 0.151362 1000000.0   0   0   0     0     0     0   0.0   0.0
  126 0.0000 0.000000 0.281635 1000000.0   0   0   0     0     0     0   0.0   0.0
  127 0.0000 0.000000 0.435903 1000000.0   0   0   0     0     0     0   0.0   0.0
  128 0.0000 0.000000 0.420472 1000000.0   0   0   0     0     0     0   0.0   0.0
  129 0.0000 0.000000 0.465734 1000000.0   0   0   0     0     0     0   0.0   0.0
  130 0.0000 0.000000 0.365902 1000000.0   0   0   0     0     0     0   0.0   0.0
  131 0.0500 0.000000 0.313207 1000000.0   0   0   0     0     0     0   0.0   0.0
  132 0.1800 0.000000 0.234240 1000000.0   0   0   0     0     0     0   0.0   0.0
  133 0.6500 0.000000 0.140246 1000000.0   0   0   0     0     0     0   0.0   0.0
  134 1.5600 0.000000 0.222503 1000000.0   0   0   0     0     0     0   0.0   0.0
  135 1.4100 0.000000 0.303280 1000000.0   0   0   0     0     0     0   0.0   0.0
  136 1.9496 0.000000 0.281466 1000000.0   0   0   0     0     0     0   0.0   0.0
  137 0.2900 0.000000 0.317798 1000000.0   0   0   0     0     0     0   0.0   0.0
  138 0.5700 0.000000 0.247564 1000000.0   0   0   0     0     0     0   0.0   0.0
  139 1.8796 0.000000 0.343652 1000000.0   0   0   0     0     0     0   0.0   0.0
  140 0.0000 0.000000 0.289328 1000000.0   0   0   0     0     0     0   0.0   0.0
  141 0.0000 0.000000 0.326052 1000000.0   0   0   0     0     0     0   0.0   0.0
  142 3.2600 0.000000 0.139505 1000000.0   0   0   0     0     0     0   0.0   0.0
  143 1.2700 0.000000 0.327243 1000000.0   0   0   0     0     0     0   0.0   0.0
  144 0.0000 0.000000 0.440749 1000000.0   0   0   0     0     0     0   0.0   0.0
  145 1.2700 0.000000 0.486034 1000000.0   0   0   0     0     0     0   0.0   0.0
  146 0.0000 0.000000 0.521230 1000000.0   0   0   0     0     0     0   0.0   0.0
  147 1.2700 0.000000 0.447268 1000000.0   0   0   0     0     0     0   0.0   0.0
  148 1.2700 0.000000 0.536353 1000000.0   0   0   0     0     0     0   0.0   0.0
  149 0.0000 0.000000 0.564299 1000000.0   0   0   0     0     0     0   0.0   0.0
  150 1.2700 0.000000 0.561356 1000000.0   0   0   0     0     0     0   0.0   0.0
  151 0.0000 0.000000 0.595047 1000000.0   0   0   0     0     0     0   0.0   0.0
  152 0.0000 0.000000 0.470949 1000000.0   0   0   0     0     0     0   0.0   0.0
  153 3.8100 0.000000 0.493285 1000000.0   0   0   0     0     0     0   0.0   0.0
  154 0.0000 0.000000 0.335048 1000000.0   0   0   0     0     0     0   0.0   0.0
  155 0.0000 0.000000 0.376915 1000000.0   0   0   0     0     0     0   0.0   0.0
  156 0.0000 0.000000 0.450457 1000000.0   0   0   0     0     0     0   0.0   0.0
  157 3.8100 0.000000 0.391139 1000000.0   0   0   0     0     0     0   0.0   0.0
  158 0.0000 0.000000 0.466489 1000000.0   0   0   0     0     0     0   0.0   0.0
  159 0.0000 0.000000 0.625733 1000000.0   0   0   0     0     0     0   0.0   0.0
  160 3.8100 0.000000 0.612713 1000000.0   0   0   0     0     0     0   0.0   0.0
  161 0.0000 0.000000 0.634154 1000000.0   0   0   0     0     0     0   0.0   0.0
  162 2.5400 0.000000 0.308985 1000000.0   0   0   0     0     0     0   0.0   0.0
  163 0.1100 0.000000 0.363410 1000000.0   0   0   0     0     0     0   0.0   0.0
  164 0.0000 0.000000 0.351025 1000000.0   0   0   0     0     0     0   0.0   0.0
  165 0.0000 0.000000 0.486802 1000000.0   0   0   0     0     0     0   0.0   0.0
  166 2.5400 0.000000 0.487136 1000000.0   0   0   0     0     0     0   0.0   0.0
  167 0.2900 0.000000 0.231768 1000000.0   0   0   0     0     0     0   0.0   0.0
  168 0.0000 0.000000 0.503614 1000000.0   0   0   0     0     0     0   0.0   0.0
  169 0.0000 0.000000 0.556840 1000000.0   0   0   0     0     0     0   0.0   0.0
  170 0.1600 0.000000 0.590879 1000000.0   0   0   0     0     0     0   0.0   0.0
  171 1.2900 0.000000 0.244680 1000000.0   0   0   0     0     0     0   0.0   0.0
  172 0.0700 0.000000 0.301357 1000000.0   0   0   0     0     0     0   0.0   0.0
  173 0.2700 0.000000 0.153097 1000000.0   0   0   0     0     0     0   0.0   0.0
  174 0.0000 0.000000 0.331016 1000000.0   0   0   0     0     0     0   0.0   0.0
  175 0.0000 0.000000 0.594278 1000000.0   0   0   0     0     0     0   0.0   0.0
  176 0.0000 0.000000 0.493586 1000000.0   0   0   0     0     0     0   0.0   0.0
  177 0.0000 0.000000 0.380124 1000000.0   0   0   0     0     0     0   0.0   0.0
  178 0.0000 0.000000 0.431672 1000000.0   0   0   0     0     0     0   0.0   0.0
  179 0.0000 0.000000 0.400668 1000000.0   0   0   0     0     0     0   0.0   0.0
  180 0.0000 0.000000 0.530882 1000000.0   0   0   0     0     0     0   0.0   0.0
  181 0.0000 0.000000 0.575795 1000000.0   0   0   0     0     0     0   0.0   0.0
  182 0.0000 0.000000 0.753217 1000000.0   0   0   0     0     0     0   0.0   0.0
  183 0.0400 0.000000 0.394221 1000000.0   0   0   0     0     0     0   0.0   0.0
  184 0.0000 0.000000 0.677821 1000000.0   0   0   0     0     0     0   0.0   0.0
  185 0.6400 0.000000 0.305021 1000000.0   0   0   0     0     0     0   0.0   0.0
  186 0.0000 0.000000 0.339241 1000000.0   0   0   0     0     0     0   0.0   0.0
  187 0.0000 0.000000 0.626994 1000000.0   0   0   0     0     0     0   0.0   0.0
  188 0.0000 0.000000 0.659395 1000000.0   0   0   0     0     0     0   0.0   0.0
  189 0.0000 0.000000 0.612099 1000000.0   0   0   0     0     0     0   0.0   0.0
  190 0.0000 0.000000 0.601312 1000000.0   0   0   0     0     0     0   0.0   0.0
  191 0.0000 0.000000 0.561793 1000000.0   0   0   0     0     0     0   0.0   0.0
  192 1.2700 0.000000 0.596970 1000000.0   0   0   0     0     0     0   0.0   0.0
  193 2.5400 0.000000 0.550082 1000000.0   0   0   0     0     0     0   0.0   0.0
  194 0.0000 0.000000 0.632479 1000000.0   0   0   0     0     0     0   0.0   0.0
  195 4.4450 0.000000 0.593035 1000000.0   0   0   0     0     0     0   0.0   0.0
  196 0.1500 0.000000 0.213654 1000000.0   0   0   0     0     0     0   0.0   0.0
  197 0.0000 0.000000 0.521434 1000000.0   0   0   0     0     0     0   0.0   0.0
  198 5.0800 0.000000 0.548555 1000000.0   0   0   0     0     0     0   0.0   0.0
  199 0.0000 0.000000 0.615020 1000000.0   0   0   0     0     0     0   0.0   0.0
  200 0.0000 0.000000 0.468636 1000000.0   0   0   0     0     0     0   0.0   0.0
  201 0.0000 0.000000 0.473819 1000000.0   0   0   0     0     0     0   0.0   0.0
  202 0.2500 0.000000 0.344283 1000000.0   0   0   0     0     0     0   0.0   0.0
  203 3.9116 0.000000 0.454226 1000000.0   0   0   0     0     0     0   0.0   0.0
  204 0.0000 0.000000 0.509563 1000000.0   0   0   0     0     0     0   0.0   0.0
  205 0.0000 0.000000 0.554598 1000000.0   0   0   0     0     0     0   0.0   0.0
  206 0.0000 0.000000 0.553093 1000000.0   0   0   0     0     0     0   0.0   0.0
  207 0.0000 0.000000 0.502654 1000000.0   0   0   0     0     0     0   0.0   0.0
  208 6.5300 0.000000 0.407382 1000000.0   0   0   0     0     0     0   0.0   0.0
  209 0.0300 0.000000 0.450564 1000000.0   0   0   0     0     0     0   0.0   0.0
  210 0.0000 0.000000 0.561345 1000000.0   0   0   0     0     0     0   0.0   0.0
  211 0.0800 0.000000 0.592579 1000000.0   0   0   0     0     0     0   0.0   0.0
  212 0.2300 0.000000 0.488128 1000000.0   0   0   0     0     0     0   0.0   0.0
  213 0.2700 0.000000 0.465317 1000000.0   0   0   0     0     0     0   0.0   0.0
  214 0.1200 0.000000 0.424561 1000000.0   0   0   0     0     0     0   0.0   0.0
  215 0.0000 0.000000 0.504226 1000000.0   0   0   0     0     0     0   0.0   0.0
  216 0.3400 0.000000 0.332659 1000000.0   0   0   0     0     0     0   0.0   0.0
  217 0.0000 0.000000 0.452522 1000000.0   0   0   0     0     0     0   0.0   0.0
  218 0.0000 0.000000 0.398447 1000000.0   0   0   0     0     0     0   0.0   0.0
  219 3.4700 0.000000 0.154507 1000000.0   0   0   0     0     0     0   0.0   0.0
  220 0.0500 0.000000 0.212148 1000000.0   0   0   0     0     0     0   0.0   0.0
  221 0.0000 0.000000 0.409016 1000000.0   0   0   0     0     0     0   0.0   0.0
  222 0.0000 0.000000 0.450324 1000000.0   0   0   0     0     0     0   0.0   0.0
  223 0.0000 0.000000 0.392332 1000000.0   0   0   0     0     0     0   0.0   0.0
  224 0.0000 0.000000 0.496941 1000000.0   0   0   0     0     0     0   0.0   0.0
  225 0.0000 0.000000 0.539976 1000000.0   0   0   0     0     0     0   0.0   0.0
  226 0.0000 0.000000 0.528916 1000000.0   0   0   0     0     0     0   0.0   0.0
  227 0.0000 0.000000 0.482922 1000000.0   0   0   0     0     0     0   0.0   0.0
  228 0.1300 0.000000 0.401393 1000000.0   0   0   0     0     0     0   0.0   0.0
  229 0.1300 0.000000 0.292370 1000000.0   0   0   0     0     0     0   0.0   0.0
  230 0.0300 0.000000 0.355012 1000000.0   0   0   0     0     0     0   0.0   0.0
  231 0.0000 0.000000 0.484893 1000000.0   0   0   0     0     0     0   0.0   0.0
  232 0.0000 0.000000 0.472656 1000000.0   0   0   0     0     0     0   0.0   0.0
  233 0.0000 0.000000 0.453073 1000000.0   0   0   0     0     0     0   0.0   0.0
  234 0.0000 0.000000 0.417074 1000000.0   0   0   0     0     0     0   0.0   0.0
  235 4.6228 0.000000 0.512315 1000000.0   0   0   0     0     0     0   0.0   0.0
  236 0.0000 0.000000 0.445174 1000000.0   0   0   0     0     0     0   0.0   0.0
  237 0.0000 0.000000 0.431707 1000000.0   0   0   0     0     0     0   0.0   0.0
  238 0.0000 0.000000 0.340389 1000000.0   0   0   0     0     0     0   0.0   0.0
  239 0.1500 0.000000 0.192990 1000000.0   0   0   0     0     0     0   0.0   0.0
  240 4.9328 0.000000 0.124771 1000000.0   0   0   0     0     0     0   0.0   0.0
  241 0.0000 0.000000 0.345921 1000000.0   0   0   0     0     0     0   0.0   0.0
  242 0.0000 0.000000 0.391976 1000000.0   0   0   0     0     0     0   0.0   0.0
  243 0.0000 0.000000 0.427160 1000000.0   0   0   0     0     0     0   0.0   0.0
  244 0.0000 0.000000 0.389328 1000000.0   0   0   0     0     0     0   0.0   0.0
  245 0.0000 0.000000 0.431273 1000000.0   0   0   0     0     0     0   0.0   0.0
  246 0.0000 0.000000 0.390583 1000000.0   0   0   0     0     0     0   0.0   0.0
  247 0.0000 0.000000 0.312926 1000000.0   0   0   0     0     0     0   0.0   0.0
  248 0.0000 0.000000 0.380350 1000000.0   0   0   0     0     0     0   0.0   0.0
  249 0.0000 0.000000 0.331810 1000000.0   0   0   0     0     0     0   0.0   0.0
  250 0.0000 0.000000 0.313325 1000000.0   0   0   0     0     0     0   0.0   0.0
  251 0.0000 0.000000 0.339623 1000000.0   0   0   0     0     0     0   0.0   0.0
  252 0.0000 0.000000 0.228600 1000000.0   0   0   0     0     0     0   0.0   0.0
  253 0.0000 0.000000 0.263383 1000000.0   0   0   0     0     0     0   0.0   0.0
  254 0.0000 0.000000 0.178304 1000000.0   0   0   0     0     0     0   0.0   0.0
  255 0.0000 0.000000 0.196649 1000000.0   0   0   0     0     0     0   0.0   0.0
end*** END OF INPUT FILE ATMOSPH.IN **********************************
